IEEE_118bus/RAW/case118_modify_genafter_FS_FT_Ex_2.raw
0,   100.00,  32, 0, 1, 60.00     / PSS(R)E 32 RAW created by rawd32  WED, JUL 18 2018  14:55
 08/25/93 UW ARCHIVE           100.0  1961 W IEEE 118 BUS TE
 08/25/93 UW ARCHIVE           100.0  1961 W IEEE 118 BUS TE
     1,'RIVERSDE    ', 138.0000,2,   1,   1,   1,0.97020,  25.6510
     2,'POKAGON     ', 138.0000,1,   1,   1,   1,0.97510,  25.8359
     3,'HICKRYCK    ', 138.0000,1,   1,   1,   1,0.97798,  26.2088
     4,'NWCARLSL    ', 138.0000,2,   1,   1,   1,0.99800,  28.7162
     5,'OLIVE       ', 138.0000,1,   1,   1,   1,1.00155,  28.9217
     6,'KANKAKEE    ', 138.0000,2,   1,   1,   1,0.99000,  27.3798
     7,'JACKSNRD    ', 138.0000,1,   1,   1,   1,0.98681,  26.9014
     8,'OLIVE       ', 138.0000,2,   1,   1,   1,1.01500,  31.9678
     9,'BEQUINE     ', 138.0000,1,   1,   1,   1,1.04775,  36.8078
    10,'BREED       ', 138.0000,2,   1,   1,   1,1.05000,  41.9244
    11,'SOUTHBND    ', 138.0000,1,   1,   1,   1,0.98446,  26.8281
    12,'TWINBRCH    ', 138.0000,2,   1,   1,   1,0.98234,  26.3320
    13,'CONCORD     ', 138.0000,1,   1,   1,   1,0.97751,  25.9395
    14,'GOSHENJT    ', 138.0000,1,   1,   1,   1,0.98249,  25.8531
    15,'FTWAYNE     ', 138.0000,2,   1,   1,   1,0.98240,  25.5496
    16,'N. E.       ', 138.0000,1,   1,   1,   1,0.98491,  25.9959
    17,'SORENSON    ', 138.0000,1,   1,   1,   1,1.00151,  26.7087
    18,'MCKINLEY    ', 138.0000,2,   1,   1,   1,0.98061,  25.7479
    19,'LINCOLN     ', 138.0000,2,   1,   1,   1,0.97369,  25.6552
    20,'ADAMS       ', 138.0000,1,   1,   1,   1,0.97659,  25.4508
    21,'JAY         ', 138.0000,1,   1,   1,   1,0.97999,  25.8317
    22,'RANDOLPH    ', 138.0000,1,   1,   1,   1,0.98801,  26.6898
    23,'COLLCRNR    ', 138.0000,1,   1,   1,   1,1.00332,  28.5929
    24,'TRENTON     ', 138.0000,2,   1,   1,   1,0.99219,  28.8530
    25,'TANNRSCK    ', 138.0000,2,   1,   1,   1,1.03712,  30.7663
    26,'TANNRSCK    ', 138.0000,2,   1,   1,   1,1.01500,  32.8240
    27,'MADISON     ', 138.0000,2,   1,   1,   1,0.97255,  26.9986
    28,'MULLIN      ', 138.0000,1,   1,   1,   1,0.96744,  26.5674
    29,'GRANT       ', 138.0000,1,   1,   1,   1,0.96577,  26.6263
    30,'SORENSON    ', 138.0000,1,   1,   1,   1,0.99561,  29.2630
    31,'DEERCRK     ', 138.0000,2,   1,   1,   1,0.96700,  26.9217
    32,'DELAWARE    ', 138.0000,2,   1,   1,   1,0.97647,  26.6974
    33,'HAVILAND    ', 138.0000,1,   1,   1,   1,0.98751,  25.0820
    34,'ROCKHILL    ', 138.0000,2,   1,   1,   1,0.99662,  25.4568
    35,'WESTLIMA    ', 138.0000,1,   1,   1,   1,0.99456,  25.1642
    36,'STERLING    ', 138.0000,2,   1,   1,   1,0.99400,  25.1799
    37,'EASTLIMA    ', 138.0000,1,   1,   1,   1,1.00155,  25.5972
    38,'EASTLIMA    ', 138.0000,1,   1,   1,   1,0.97475,  27.7029
    39,'NWLIBRTY    ', 138.0000,1,   1,   1,   1,0.97791,  24.5182
    40,'WEST END    ', 138.0000,2,   1,   1,   1,0.97000,  24.3972
    41,'S.TIFFIN    ', 138.0000,1,   1,   1,   1,0.97032,  24.0732
    42,'HOWARD      ', 138.0000,2,   1,   1,   1,0.98500,  24.8040
    43,'S.KENTON    ', 138.0000,1,   1,   1,   1,1.00117,  25.1515
    44,'WMVERNON    ', 138.0000,1,   1,   1,   1,1.01132,  26.1734
    45,'N.NEWARK    ', 138.0000,1,   1,   1,   1,1.00842,  27.1312
    46,'W.LANCST    ', 138.0000,2,   1,   1,   1,1.00500,  29.2735
    47,'CROOKSVL    ', 138.0000,1,   1,   1,   1,1.02064,  29.0356
    48,'ZANESVLL    ', 138.0000,1,   1,   1,   1,1.02409,  29.0559
    49,'PHILO       ', 138.0000,2,   1,   1,   1,1.02500,  29.4255
    50,'WCAMBRDG    ', 138.0000,1,   1,   1,   1,1.01058,  27.9182
    51,'NEWCMRST    ', 138.0000,1,   1,   1,   1,0.99034,  26.0172
    52,'SCOSHOCT    ', 138.0000,1,   1,   1,   1,0.98456,  25.3751
    53,'WOOSTER     ', 138.0000,1,   1,   1,   1,0.97646,  24.5296
    54,'TORREY      ', 138.0000,2,   1,   1,   1,0.97795,  24.8012
    55,'WAGENHLS    ', 138.0000,2,   1,   1,   1,0.97571,  24.6745
    56,'SUNNYSDE    ', 138.0000,2,   1,   1,   1,0.97744,  24.7902
    57,'WNWPHIL1    ', 138.0000,1,   1,   1,   1,0.99023,  25.8892
    58,'WNWPHIL2    ', 138.0000,1,   1,   1,   1,0.98391,  25.3284
    59,'TIDD        ', 138.0000,2,   1,   1,   1,0.98500,  26.9230
    60,'SWKAMMER    ', 138.0000,1,   1,   1,   1,0.99463,  29.2182
    61,'W.KAMMER    ', 138.0000,2,   1,   1,   1,0.99500,  29.6455
    62,'NATRIUM     ', 138.0000,2,   1,   1,   1,1.00118,  29.7639
    63,'TIDD        ', 138.0000,1,   1,   1,   1,0.96902,  28.6163
    64,'KAMMER      ', 138.0000,1,   1,   1,   1,0.98178,  29.4764
    65,'MUSKNGUM    ', 138.0000,2,   1,   1,   1,0.99433,  30.5806
    66,'MUSKNGUM    ', 138.0000,2,   1,   1,   1,1.05000,  34.0987
    67,'SUMMERFL    ', 138.0000,1,   1,   1,   1,1.02419,  31.6711
    68,'SPORN       ', 138.0000,1,   1,   1,   1,0.99259,  29.9453
    69,'SPORN       ', 138.0000,3,   1,   1,   1,1.03500,  30.0000
    70,'PORTSMTH    ', 138.0000,2,   1,   1,   1,0.99783,  28.0378
    71,'NPORTSMT    ', 138.0000,1,   1,   1,   1,0.99574,  28.3636
    72,'HILLSBRO    ', 138.0000,2,   1,   1,   1,0.99677,  28.1647
    73,'SARGENTS    ', 138.0000,2,   1,   1,   1,0.99100,  28.8343
    74,'BELLEFNT    ', 138.0000,2,   1,   1,   1,0.97966,  27.6732
    75,'STHPOINT    ', 138.0000,1,   1,   1,   1,0.99223,  27.7638
    76,'DARRAH      ', 138.0000,2,   1,   1,   1,0.98159,  27.0598
    77,'TURNER      ', 138.0000,2,   1,   1,   1,1.02112,  29.5427
    78,'CHEMICAL    ', 138.0000,1,   1,   1,   1,1.02056,  29.3841
    79,'CAPITLHL    ', 138.0000,1,   1,   1,   1,1.02535,  29.5739
    80,'CABINCRK    ', 138.0000,2,   1,   1,   1,1.04000,  30.9864
    81,'KANAWHA     ', 138.0000,1,   1,   1,   1,0.99013,  30.3499
    82,'LOGAN       ', 138.0000,1,   1,   1,   1,1.01057,  30.2447
    83,'SPRIGG      ', 138.0000,1,   1,   1,   1,1.00349,  31.0394
    84,'BETSYLNE    ', 138.0000,1,   1,   1,   1,0.98975,  32.7725
    85,'BEAVERCK    ', 138.0000,2,   1,   1,   1,0.98671,  33.8246
    86,'HAZARD      ', 138.0000,1,   1,   1,   1,0.98228,  32.9574
    87,'PINEVLLE    ', 138.0000,2,   1,   1,   1,0.98684,  32.9211
    88,'FREMONT     ', 138.0000,1,   1,   1,   1,0.99337,  35.1117
    89,'CLINCHRV    ', 138.0000,2,   1,   1,   1,1.00500,  37.0825
    90,'HOLSTON     ', 138.0000,2,   1,   1,   1,0.98500,  34.3127
    91,'HOLSTONT    ', 138.0000,2,   1,   1,   1,0.99311,  34.0685
    92,'SALTVLLE    ', 138.0000,2,   1,   1,   1,1.00427,  34.1785
    93,'TAZEWELL    ', 138.0000,1,   1,   1,   1,1.00400,  32.6458
    94,'SWITCHBK    ', 138.0000,1,   1,   1,   1,1.00717,  31.5850
    95,'CALDWELL    ', 138.0000,1,   1,   1,   1,1.00351,  30.8748
    96,'BAILEYSV    ', 138.0000,1,   1,   1,   1,1.01183,  30.5632
    97,'SUNDIAL     ', 138.0000,1,   1,   1,   1,1.02366,  30.5729
    98,'BRADLEY     ', 138.0000,1,   1,   1,   1,1.02809,  30.6509
    99,'HINTON      ', 138.0000,2,   1,   1,   1,1.02264,  30.8956
   100,'GLEN LYN    ', 138.0000,2,   1,   1,   1,1.01700,  31.9685
   101,'WYTHE       ', 138.0000,1,   1,   1,   1,1.00547,  32.4101
   102,'SMYTHE      ', 138.0000,1,   1,   1,   1,1.00452,  33.5267
   103,'CLAYTOR     ', 138.0000,2,   1,   1,   1,1.01000,  31.3556
   104,'HANCOCK     ', 138.0000,2,   1,   1,   1,0.98910,  29.9959
   105,'ROANOKE     ', 138.0000,2,   1,   1,   1,0.98468,  29.7160
   106,'CLOVERDL    ', 138.0000,1,   1,   1,   1,0.97977,  29.5382
   107,'REUSENS     ', 138.0000,2,   1,   1,   1,0.95200,  29.5485
   108,'BLAINE      ', 138.0000,1,   1,   1,   1,0.98066,  29.6176
   109,'FRANKLIN    ', 138.0000,1,   1,   1,   1,0.97895,  29.6005
   110,'FIELDALE    ', 138.0000,2,   1,   1,   1,0.97599,  29.7564
   111,'DANRIVER    ', 138.0000,2,   1,   1,   1,0.98000,  31.8990
   112,'DANVILLE    ', 138.0000,2,   1,   1,   1,0.96276,  28.3156
   113,'DEER CRK    ', 138.0000,2,   1,   1,   1,0.99878,  26.6424
   114,'WMEDFORD    ', 138.0000,1,   1,   1,   1,0.97233,  26.5065
   115,'MEDFORD     ', 138.0000,1,   1,   1,   1,0.97182,  26.5015
   116,'KYGERCRK    ', 138.0000,2,   1,   1,   1,0.99255,  29.6973
   117,'COREY       ', 138.0000,1,   1,   1,   1,0.97429,  25.4350
   118,'WHUNTNGD    ', 138.0000,1,   1,   1,   1,0.98385,  27.1858
 0 /End of Bus data, Begin Load data
     1,'1 ',1,   1,   1,     0.000,     0.000,     0.000,     0.000,    30.796,   -16.303,   1,1
     2,'1 ',1,   1,   1,     0.000,     0.000,     0.000,     0.000,    11.956,    -5.380,   1,1
     2,'PV',1,   1,   1,     0.000,     0.000,     0.000,     0.000,     0.000,     0.000,   1,1
     3,'1 ',1,   1,   1,     0.000,     0.000,     0.000,     0.000,    23.177,    -5.943,   1,1
     3,'PV',1,   1,   1,     0.000,     0.000,     0.000,     0.000,     0.000,     0.000,   1,1
     4,'1 ',1,   1,   1,     0.000,     0.000,     0.000,     0.000,    22.256,    -6.848,   1,1
     5,'SH',1,   1,   1,     0.000,     0.000,     0.000,     0.000,     0.000,     0.000,   1,1
     6,'1 ',1,   1,   1,     0.000,     0.000,     0.000,     0.000,    30.156,   -12.758,   1,1
     7,'1 ',1,   1,   1,     0.000,     0.000,     0.000,     0.000,    11.090,    -1.168,   1,1
     7,'PV',1,   1,   1,     0.000,     0.000,     0.000,     0.000,     0.000,     0.000,   1,1
     8,'1 ',1,   1,   1,     0.000,     0.000,     0.000,     0.000,    15.448,     0.000,   1,1
    11,'1 ',1,   1,   1,     0.000,     0.000,     0.000,     0.000,    41.053,   -13.489,   1,1
    11,'PV',1,   1,   1,     0.000,     0.000,     0.000,     0.000,     0.000,     0.000,   1,1
    12,'1 ',1,   1,   1,     0.000,     0.000,     0.000,     0.000,    27.683,    -5.890,   1,1
    13,'1 ',1,   1,   1,     0.000,     0.000,     0.000,     0.000,    20.225,    -9.517,   1,1
    13,'PV',1,   1,   1,     0.000,     0.000,     0.000,     0.000,     0.000,     0.000,   1,1
    14,'1 ',1,   1,   1,     0.000,     0.000,     0.000,     0.000,     8.243,    -0.588,   1,1
    14,'PV',1,   1,   1,     0.000,     0.000,     0.000,     0.000,     0.000,     0.000,   1,1
    15,'1 ',1,   1,   1,     0.000,     0.000,     0.000,     0.000,    53.004,   -17.669,   1,1
    16,'1 ',1,   1,   1,     0.000,     0.000,     0.000,     0.000,    14.649,    -5.859,   1,1
    16,'PV',1,   1,   1,     0.000,     0.000,     0.000,     0.000,     0.000,     0.000,   1,1
    17,'1 ',1,   1,   1,     0.000,     0.000,     0.000,     0.000,     6.233,    -1.700,   1,1
    17,'PV',1,   1,   1,     0.000,     0.000,     0.000,     0.000,     0.000,     0.000,   1,1
    18,'1 ',1,   1,   1,     0.000,     0.000,     0.000,     0.000,    35.465,   -20.097,   1,1
    19,'1 ',1,   1,   1,     0.000,     0.000,     0.000,     0.000,    26.978,   -14.988,   1,1
    20,'1 ',1,   1,   1,     0.000,     0.000,     0.000,     0.000,    10.727,    -1.788,   1,1
    20,'PV',1,   1,   1,     0.000,     0.000,     0.000,     0.000,     0.000,     0.000,   1,1
    21,'1 ',1,   1,   1,     0.000,     0.000,     0.000,     0.000,     8.285,    -4.735,   1,1
    21,'PV',1,   1,   1,     0.000,     0.000,     0.000,     0.000,     0.000,     0.000,   1,1
    22,'1 ',1,   1,   1,     0.000,     0.000,     0.000,     0.000,     5.823,    -2.911,   1,1
    22,'PV',1,   1,   1,     0.000,     0.000,     0.000,     0.000,     0.000,     0.000,   1,1
    23,'1 ',1,   1,   1,     0.000,     0.000,     0.000,     0.000,     3.953,    -1.694,   1,1
    23,'PV',1,   1,   1,     0.000,     0.000,     0.000,     0.000,     0.000,     0.000,   1,1
    24,'1 ',1,   1,   1,     0.000,     0.000,     0.000,     0.000,     7.506,     0.000,   1,1
    27,'1 ',1,   1,   1,     0.000,     0.000,     0.000,     0.000,    42.665,    -7.812,   1,1
    28,'1 ',1,   1,   1,     0.000,     0.000,     0.000,     0.000,    10.324,    -4.251,   1,1
    28,'PV',1,   1,   1,     0.000,     0.000,     0.000,     0.000,     0.000,     0.000,   1,1
    29,'1 ',1,   1,   1,     0.000,     0.000,     0.000,     0.000,    14.625,    -2.438,   1,1
    29,'PV',1,   1,   1,     0.000,     0.000,     0.000,     0.000,     0.000,     0.000,   1,1
    31,'1 ',1,   1,   1,     0.000,     0.000,     0.000,     0.000,    26.138,   -16.411,   1,1
    32,'1 ',1,   1,   1,     0.000,     0.000,     0.000,     0.000,    35.171,   -13.711,   1,1
    33,'1 ',1,   1,   1,     0.000,     0.000,     0.000,     0.000,    13.406,    -5.245,   1,1
    33,'PV',1,   1,   1,     0.000,     0.000,     0.000,     0.000,     0.000,     0.000,   1,1
    34,'1 ',1,   1,   1,     0.000,     0.000,     0.000,     0.000,    33.763,   -14.878,   1,1
    34,'SH',1,   1,   1,     0.000,     0.000,     0.000,     0.000,     0.000,     0.000,   1,1
    35,'1 ',1,   1,   1,     0.000,     0.000,     0.000,     0.000,    18.963,    -5.171,   1,1
    35,'PV',1,   1,   1,     0.000,     0.000,     0.000,     0.000,     0.000,     0.000,   1,1
    36,'1 ',1,   1,   1,     0.000,     0.000,     0.000,     0.000,    17.833,    -9.780,   1,1
    37,'SH',1,   1,   1,     0.000,     0.000,     0.000,     0.000,     0.000,     0.000,   1,1
    39,'1 ',1,   1,   1,     0.000,     0.000,     0.000,     0.000,    16.053,    -6.541,   1,1
    39,'PV',1,   1,   1,     0.000,     0.000,     0.000,     0.000,     0.000,     0.000,   1,1
    40,'1 ',1,   1,   1,     0.000,     0.000,     0.000,     0.000,    39.884,   -13.899,   1,1
    41,'1 ',1,   1,   1,     0.000,     0.000,     0.000,     0.000,    22.345,    -6.039,   1,1
    41,'PV',1,   1,   1,     0.000,     0.000,     0.000,     0.000,     0.000,     0.000,   1,1
    42,'1 ',1,   1,   1,     0.000,     0.000,     0.000,     0.000,    56.260,   -13.479,   1,1
    43,'1 ',1,   1,   1,     0.000,     0.000,     0.000,     0.000,    10.211,    -3.971,   1,1
    43,'PV',1,   1,   1,     0.000,     0.000,     0.000,     0.000,     0.000,     0.000,   1,1
    44,'1 ',1,   1,   1,     0.000,     0.000,     0.000,     0.000,     8.895,    -4.448,   1,1
    44,'PV',1,   1,   1,     0.000,     0.000,     0.000,     0.000,     0.000,     0.000,   1,1
    44,'SH',1,   1,   1,     0.000,     0.000,     0.000,     0.000,     0.000,     0.000,   1,1
    45,'1 ',1,   1,   1,     0.000,     0.000,     0.000,     0.000,    29.635,   -12.301,   1,1
    45,'PV',1,   1,   1,     0.000,     0.000,     0.000,     0.000,     0.000,     0.000,   1,1
    45,'SH',1,   1,   1,     0.000,     0.000,     0.000,     0.000,     0.000,     0.000,   1,1
    46,'1 ',1,   1,   1,     0.000,     0.000,     0.000,     0.000,    15.763,    -5.630,   1,1
    46,'SH',1,   1,   1,     0.000,     0.000,     0.000,     0.000,     0.000,     0.000,   1,1
    47,'1 ',1,   1,   1,     0.000,     0.000,     0.000,     0.000,    18.558,     0.000,   1,1
    47,'PV',1,   1,   1,     0.000,     0.000,     0.000,     0.000,     0.000,     0.000,   1,1
    48,'1 ',1,   1,   1,     0.000,     0.000,     0.000,     0.000,    10.843,    -5.964,   1,1
    48,'PV',1,   1,   1,     0.000,     0.000,     0.000,     0.000,     0.000,     0.000,   1,1
    48,'SH',1,   1,   1,     0.000,     0.000,     0.000,     0.000,     0.000,     0.000,   1,1
    49,'1 ',1,   1,   1,     0.000,     0.000,     0.000,     0.000,    47.084,   -16.236,   1,1
    50,'1 ',1,   1,   1,     0.000,     0.000,     0.000,     0.000,     9.465,    -2.227,   1,1
    50,'PV',1,   1,   1,     0.000,     0.000,     0.000,     0.000,     0.000,     0.000,   1,1
    51,'1 ',1,   1,   1,     0.000,     0.000,     0.000,     0.000,     9.855,    -4.638,   1,1
    51,'PV',1,   1,   1,     0.000,     0.000,     0.000,     0.000,     0.000,     0.000,   1,1
    52,'1 ',1,   1,   1,     0.000,     0.000,     0.000,     0.000,    10.559,    -2.933,   1,1
    52,'PV',1,   1,   1,     0.000,     0.000,     0.000,     0.000,     0.000,     0.000,   1,1
    53,'1 ',1,   1,   1,     0.000,     0.000,     0.000,     0.000,    13.716,    -6.560,   1,1
    53,'PV',1,   1,   1,     0.000,     0.000,     0.000,     0.000,     0.000,     0.000,   1,1
    54,'1 ',1,   1,   1,     0.000,     0.000,     0.000,     0.000,    67.181,   -19.025,   1,1
    55,'1 ',1,   1,   1,     0.000,     0.000,     0.000,     0.000,    37.628,   -13.140,   1,1
    56,'1 ',1,   1,   1,     0.000,     0.000,     0.000,     0.000,    49.992,   -10.713,   1,1
    57,'1 ',1,   1,   1,     0.000,     0.000,     0.000,     0.000,     6.958,    -1.740,   1,1
    57,'PV',1,   1,   1,     0.000,     0.000,     0.000,     0.000,     0.000,     0.000,   1,1
    58,'1 ',1,   1,   1,     0.000,     0.000,     0.000,     0.000,     7.048,    -1.762,   1,1
    58,'PV',1,   1,   1,     0.000,     0.000,     0.000,     0.000,     0.000,     0.000,   1,1
    59,'1 ',1,   1,   1,     0.000,     0.000,     0.000,     0.000,   162.336,   -66.223,   1,1
    60,'1 ',1,   1,   1,     0.000,     0.000,     0.000,     0.000,    44.830,    -1.724,   1,1
    60,'PV',1,   1,   1,     0.000,     0.000,     0.000,     0.000,     0.000,     0.000,   1,1
    62,'1 ',1,   1,   1,     0.000,     0.000,     0.000,     0.000,    43.678,    -7.941,   1,1
    66,'1 ',1,   1,   1,     0.000,     0.000,     0.000,     0.000,    20.113,    -9.283,   1,1
    67,'1 ',1,   1,   1,     0.000,     0.000,     0.000,     0.000,    15.178,    -3.794,   1,1
    67,'PV',1,   1,   1,     0.000,     0.000,     0.000,     0.000,     0.000,     0.000,   1,1
    70,'1 ',1,   1,   1,     0.000,     0.000,     0.000,     0.000,    37.690,   -11.422,   1,1
    72,'1 ',1,   1,   1,     0.000,     0.000,     0.000,     0.000,     6.867,     0.000,   1,1
    73,'1 ',1,   1,   1,     0.000,     0.000,     0.000,     0.000,     3.474,     0.000,   1,1
    74,'1 ',1,   1,   1,     0.000,     0.000,     0.000,     0.000,    40.286,   -15.996,   1,1
    74,'SH',1,   1,   1,     0.000,     0.000,     0.000,     0.000,     0.000,     0.000,   1,1
    75,'1 ',1,   1,   1,     0.000,     0.000,     0.000,     0.000,    27.144,    -6.353,   1,1
    75,'PV',1,   1,   1,     0.000,     0.000,     0.000,     0.000,     0.000,     0.000,   1,1
    76,'1 ',1,   1,   1,     0.000,     0.000,     0.000,     0.000,    40.126,   -21.243,   1,1
    77,'1 ',1,   1,   1,     0.000,     0.000,     0.000,     0.000,    33.262,   -15.268,   1,1
    78,'1 ',1,   1,   1,     0.000,     0.000,     0.000,     0.000,    38.758,   -14.193,   1,1
    78,'PV',1,   1,   1,     0.000,     0.000,     0.000,     0.000,     0.000,     0.000,   1,1
    79,'1 ',1,   1,   1,     0.000,     0.000,     0.000,     0.000,    21.091,   -17.306,   1,1
    79,'PV',1,   1,   1,     0.000,     0.000,     0.000,     0.000,     0.000,     0.000,   1,1
    79,'SH',1,   1,   1,     0.000,     0.000,     0.000,     0.000,     0.000,     0.000,   1,1
    80,'1 ',1,   1,   1,     0.000,     0.000,     0.000,     0.000,    68.337,   -13.668,   1,1
    82,'1 ',1,   1,   1,     0.000,     0.000,     0.000,     0.000,    30.063,   -15.032,   1,1
    82,'PV',1,   1,   1,     0.000,     0.000,     0.000,     0.000,     0.000,     0.000,   1,1
    82,'SH',1,   1,   1,     0.000,     0.000,     0.000,     0.000,     0.000,     0.000,   1,1
    83,'1 ',1,   1,   1,     0.000,     0.000,     0.000,     0.000,    11.292,    -5.646,   1,1
    83,'PV',1,   1,   1,     0.000,     0.000,     0.000,     0.000,     0.000,     0.000,   1,1
    83,'SH',1,   1,   1,     0.000,     0.000,     0.000,     0.000,     0.000,     0.000,   1,1
    84,'1 ',1,   1,   1,     0.000,     0.000,     0.000,     0.000,     6.384,    -4.063,   1,1
    84,'PV',1,   1,   1,     0.000,     0.000,     0.000,     0.000,     0.000,     0.000,   1,1
    85,'1 ',1,   1,   1,     0.000,     0.000,     0.000,     0.000,    14.015,    -8.759,   1,1
    86,'1 ',1,   1,   1,     0.000,     0.000,     0.000,     0.000,    12.375,    -5.893,   1,1
    86,'PV',1,   1,   1,     0.000,     0.000,     0.000,     0.000,     0.000,     0.000,   1,1
    88,'1 ',1,   1,   1,     0.000,     0.000,     0.000,     0.000,    27.657,    -5.762,   1,1
    88,'PV',1,   1,   1,     0.000,     0.000,     0.000,     0.000,     0.000,     0.000,   1,1
    90,'1 ',1,   1,   1,     0.000,     0.000,     0.000,     0.000,    95.519,   -24.613,   1,1
    91,'1 ',1,   1,   1,     0.000,     0.000,     0.000,     0.000,     5.765,     0.000,   1,1
    92,'1 ',1,   1,   1,     0.000,     0.000,     0.000,     0.000,    36.643,    -5.638,   1,1
    93,'1 ',1,   1,   1,     0.000,     0.000,     0.000,     0.000,     6.769,    -3.948,   1,1
    93,'PV',1,   1,   1,     0.000,     0.000,     0.000,     0.000,     0.000,     0.000,   1,1
    94,'1 ',1,   1,   1,     0.000,     0.000,     0.000,     0.000,    16.815,    -8.968,   1,1
    94,'PV',1,   1,   1,     0.000,     0.000,     0.000,     0.000,     0.000,     0.000,   1,1
    95,'1 ',1,   1,   1,     0.000,     0.000,     0.000,     0.000,    23.713,   -17.502,   1,1
    95,'PV',1,   1,   1,     0.000,     0.000,     0.000,     0.000,     0.000,     0.000,   1,1
    96,'1 ',1,   1,   1,     0.000,     0.000,     0.000,     0.000,    21.103,    -8.330,   1,1
    96,'PV',1,   1,   1,     0.000,     0.000,     0.000,     0.000,     0.000,     0.000,   1,1
    97,'1 ',1,   1,   1,     0.000,     0.000,     0.000,     0.000,     8.138,    -4.883,   1,1
    97,'PV',1,   1,   1,     0.000,     0.000,     0.000,     0.000,     0.000,     0.000,   1,1
    98,'1 ',1,   1,   1,     0.000,     0.000,     0.000,     0.000,    18.289,    -4.303,   1,1
    98,'PV',1,   1,   1,     0.000,     0.000,     0.000,     0.000,     0.000,     0.000,   1,1
    99,'1 ',1,   1,   1,     0.000,     0.000,     0.000,     0.000,    22.834,     0.000,   1,1
   100,'1 ',1,   1,   1,     0.000,     0.000,     0.000,     0.000,    20.340,    -9.895,   1,1
   101,'1 ',1,   1,   1,     0.000,     0.000,     0.000,     0.000,    12.372,    -8.435,   1,1
   101,'PV',1,   1,   1,     0.000,     0.000,     0.000,     0.000,     0.000,     0.000,   1,1
   102,'1 ',1,   1,   1,     0.000,     0.000,     0.000,     0.000,     2.817,    -1.691,   1,1
   102,'PV',1,   1,   1,     0.000,     0.000,     0.000,     0.000,     0.000,     0.000,   1,1
   103,'1 ',1,   1,   1,     0.000,     0.000,     0.000,     0.000,    12.819,    -8.918,   1,1
   104,'1 ',1,   1,   1,     0.000,     0.000,     0.000,     0.000,    22.084,   -14.529,   1,1
   105,'1 ',1,   1,   1,     0.000,     0.000,     0.000,     0.000,    18.178,   -15.247,   1,1
   105,'SH',1,   1,   1,     0.000,     0.000,     0.000,     0.000,     0.000,     0.000,   1,1
   106,'1 ',1,   1,   1,     0.000,     0.000,     0.000,     0.000,    25.468,    -9.477,   1,1
   106,'PV',1,   1,   1,     0.000,     0.000,     0.000,     0.000,     0.000,     0.000,   1,1
   107,'1 ',1,   1,   1,     0.000,     0.000,     0.000,     0.000,    31.367,    -7.528,   1,1
   107,'SH',1,   1,   1,     0.000,     0.000,     0.000,     0.000,     0.000,     0.000,   1,1
   108,'1 ',1,   1,   1,     0.000,     0.000,     0.000,     0.000,     1.182,    -0.592,   1,1
   108,'PV',1,   1,   1,     0.000,     0.000,     0.000,     0.000,     0.000,     0.000,   1,1
   109,'1 ',1,   1,   1,     0.000,     0.000,     0.000,     0.000,     4.746,    -1.780,   1,1
   109,'PV',1,   1,   1,     0.000,     0.000,     0.000,     0.000,     0.000,     0.000,   1,1
   110,'1 ',1,   1,   1,     0.000,     0.000,     0.000,     0.000,    23.278,   -17.906,   1,1
   110,'SH',1,   1,   1,     0.000,     0.000,     0.000,     0.000,     0.000,     0.000,   1,1
   112,'1 ',1,   1,   1,     0.000,     0.000,     0.000,     0.000,    41.711,    -7.974,   1,1
   113,'1 ',1,   1,   1,     0.000,     0.000,     0.000,     0.000,     3.419,     0.000,   1,1
   114,'1 ',1,   1,   1,     0.000,     0.000,     0.000,     0.000,     4.811,    -1.804,   1,1
   114,'PV',1,   1,   1,     0.000,     0.000,     0.000,     0.000,     0.000,     0.000,   1,1
   115,'1 ',1,   1,   1,     0.000,     0.000,     0.000,     0.000,    13.244,    -4.214,   1,1
   115,'PV',1,   1,   1,     0.000,     0.000,     0.000,     0.000,     0.000,     0.000,   1,1
   116,'1 ',1,   1,   1,     0.000,     0.000,     0.000,     0.000,   106.192,     0.000,   1,1
   117,'1 ',1,   1,   1,     0.000,     0.000,     0.000,     0.000,    11.979,    -4.791,   1,1
   117,'PV',1,   1,   1,     0.000,     0.000,     0.000,     0.000,     0.000,     0.000,   1,1
   118,'1 ',1,   1,   1,     0.000,     0.000,     0.000,     0.000,    19.383,    -8.810,   1,1
   118,'PV',1,   1,   1,     0.000,     0.000,     0.000,     0.000,     0.000,     0.000,   1,1
 0 /End of Load data, Begin Fixed shunt data
 0 /End of Fixed shunt data, Begin Generator data
     1,'1 ',     0.000,     0.000,    60.000,   -38.000,0.95500,     0,   100.000, 0.00000E+0, 1.80000E-1, 0.00000E+0, 0.00000E+0,1.00000,0,  100.0,    75.000,    16.000,   1,1.0000
     4,'1 ',    18.750,   -21.352,    54.000,   -36.000,0.99800,     0,   100.000, 0.00000E+0, 1.80000E-1, 0.00000E+0, 0.00000E+0,1.00000,1,  100.0,    75.000,    15.000,   1,1.0000
     6,'1 ',    18.750,     8.738,    54.000,   -36.000,0.99000,     0,   100.000, 0.00000E+0, 1.80000E-1, 0.00000E+0, 0.00000E+0,1.00000,1,  100.0,    75.000,    15.000,   1,1.0000
     8,'1 ',    18.750,    -8.931,    54.000,   -36.000,1.01500,     0,   100.000, 0.00000E+0, 1.80000E-1, 0.00000E+0, 0.00000E+0,1.00000,1,  100.0,    75.000,    15.000,   1,1.0000
    10,'1 ',   304.425,   -71.258,   388.000,  -290.000,1.05000,     0,   100.000, 0.00000E+0, 1.80000E-1, 0.00000E+0, 0.00000E+0,1.00000,1,  100.0,   629.000,   256.000,   1,1.0000
    12,'1 ',     0.000,     0.000,   120.000,  -105.000,0.99000,     0,   100.000, 0.00000E+0, 1.80000E-1, 0.00000E+0, 0.00000E+0,1.00000,0,  100.0,   185.000,    61.667,   1,1.0000
    15,'1 ',     0.000,     0.000,    54.000,   -36.000,0.97000,     0,   100.000, 0.00000E+0, 1.80000E-1, 0.00000E+0, 0.00000E+0,1.00000,0,  100.0,    75.000,    15.000,   1,1.0000
    18,'1 ',     0.000,     0.000,    54.000,   -36.000,0.97300,     0,   100.000, 0.00000E+0, 1.80000E-1, 0.00000E+0, 0.00000E+0,1.00000,0,  100.0,    75.000,    18.750,   1,1.0000
    19,'1 ',    18.750,   -36.000,    54.000,   -36.000,0.96200,     0,   100.000, 0.00000E+0, 1.80000E-1, 0.00000E+0, 0.00000E+0,1.00000,1,  100.0,    75.000,    15.000,   1,1.0000
    24,'1 ',    18.793,   -38.000,    60.000,   -38.000,0.99200,     0,   100.000, 0.00000E+0, 1.80000E-1, 0.00000E+0, 0.00000E+0,1.00000,1,  100.0,    75.000,    15.000,   1,1.0000
    25,'1 ',     0.000,     0.000,   263.000,  -164.000,1.05000,     0,   100.000, 0.00000E+0, 1.80000E-1, 0.00000E+0, 0.00000E+0,1.00000,0,  100.0,   320.000,   106.632,   1,1.0000
    26,'1 ',   177.744,    29.134,   250.000,  -215.000,1.01500,     0,   100.000, 0.00000E+0, 1.80000E-1, 0.00000E+0, 0.00000E+0,1.00000,1,  100.0,   450.000,   148.000,   1,1.0000
    27,'1 ',    18.750,   -36.000,    54.000,   -36.000,0.96800,     0,   100.000, 0.00000E+0, 1.80000E-1, 0.00000E+0, 0.00000E+0,1.00000,1,  100.0,    75.000,    15.000,   1,1.0000
    31,'1 ',    35.701,   -18.825,    90.000,   -60.000,0.96700,     0,   100.000, 0.00000E+0, 1.80000E-1, 0.00000E+0, 0.00000E+0,1.00000,1,  100.0,   107.000,    29.000,   1,1.0000
    32,'1 ',     0.000,     0.000,    60.000,   -38.000,0.96300,     0,   100.000, 0.00000E+0, 1.80000E-1, 0.00000E+0, 0.00000E+0,1.00000,0,  100.0,    75.000,    18.793,   1,1.0000
    34,'1 ',    18.792,   -38.000,    60.000,   -38.000,0.98400,     0,   100.000, 0.00000E+0, 1.80000E-1, 0.00000E+0, 0.00000E+0,1.00000,1,  100.0,    75.000,    15.000,   1,1.0000
    36,'1 ',     0.000,     0.000,    60.000,   -38.000,0.98000,     0,   100.000, 0.00000E+0, 1.80000E-1, 0.00000E+0, 0.00000E+0,1.00000,0,  100.0,    75.000,    18.750,   1,1.0000
    40,'1 ',    18.792,   -25.145,    60.000,   -38.000,0.97000,     0,   100.000, 0.00000E+0, 1.80000E-1, 0.00000E+0, 0.00000E+0,1.00000,1,  100.0,    75.000,    15.000,   1,1.0000
    42,'1 ',    18.750,     3.839,    54.000,   -36.000,0.98500,     0,   100.000, 0.00000E+0, 1.80000E-1, 0.00000E+0, 0.00000E+0,1.00000,1,  100.0,    75.000,    15.000,   1,1.0000
    46,'1 ',    39.705,   -41.590,    92.000,  -110.000,1.00500,     0,   100.000, 0.00000E+0, 1.80000E-1, 0.00000E+0, 0.00000E+0,1.00000,1,  100.0,   119.000,    33.000,   1,1.0000
    49,'1 ',   101.301,    27.660,   253.000,  -152.000,1.02500,     0,   100.000, 0.00000E+0, 1.80000E-1, 0.00000E+0, 0.00000E+0,1.00000,1,  100.0,   308.000,    84.000,   1,1.0000
    54,'1 ',     0.000,     0.000,   116.000,   -90.000,0.95500,     0,   100.000, 0.00000E+0, 1.80000E-1, 0.00000E+0, 0.00000E+0,1.00000,0,  100.0,   148.000,    42.000,   1,1.0000
    55,'1 ',     0.000,     0.000,    54.000,   -36.000,0.95200,     0,   100.000, 0.00000E+0, 1.80000E-1, 0.00000E+0, 0.00000E+0,1.00000,0,  100.0,    75.000,    18.750,   1,1.0000
    56,'1 ',     0.000,     0.000,    54.000,   -36.000,0.95400,     0,   100.000, 0.00000E+0, 1.80000E-1, 0.00000E+0, 0.00000E+0,1.00000,0,  100.0,    75.000,    18.750,   1,1.0000
    59,'1 ',    84.973,   -12.918,   158.000,  -126.000,0.98500,     0,   100.000, 0.00000E+0, 1.80000E-1, 0.00000E+0, 0.00000E+0,1.00000,1,  100.0,   257.000,    70.000,   1,1.0000
    61,'1 ',    86.639,   -30.950,   161.000,  -120.000,0.99500,     0,   100.000, 0.00000E+0, 1.80000E-1, 0.00000E+0, 0.00000E+0,1.00000,1,  100.0,   260.000,    72.000,   1,1.0000
    62,'1 ',     0.000,     0.000,    54.000,   -36.000,0.99800,     0,   100.000, 0.00000E+0, 1.80000E-1, 0.00000E+0, 0.00000E+0,1.00000,0,  100.0,    75.000,    18.750,   1,1.0000
    65,'1 ',     0.000,     0.000,   275.000,  -195.000,1.00500,     0,   100.000, 0.00000E+0, 1.80000E-1, 0.00000E+0, 0.00000E+0,1.00000,0,  100.0,   526.000,   115.000,   1,1.0000
    66,'1 ',   492.000,    29.828,   316.000,  -185.000,1.05000,     0,   100.000, 0.00000E+0, 1.80000E-1, 0.00000E+0, 0.00000E+0,1.00000,1,  100.0,   572.000,   235.000,   1,1.0000
    69,'1 ',    99.603,   -39.119,   400.000,  -400.000,1.03500,     0,   100.000, 0.00000E+0, 1.80000E-1, 0.00000E+0, 0.00000E+0,1.00000,1,  100.0,   500.000,     0.000,   1,1.0000
    70,'1 ',     0.000,     0.000,    60.000,   -38.000,0.98400,     0,   100.000, 0.00000E+0, 1.80000E-1, 0.00000E+0, 0.00000E+0,1.00000,0,  100.0,    75.000,    18.730,   1,1.0000
    72,'1 ',     0.000,     0.000,    60.000,   -38.000,0.98000,     0,   100.000, 0.00000E+0, 1.80000E-1, 0.00000E+0, 0.00000E+0,1.00000,0,  100.0,    75.000,    16.000,   1,1.0000
    73,'1 ',    18.750,   -13.784,    54.000,   -36.000,0.99100,     0,   100.000, 0.00000E+0, 1.80000E-1, 0.00000E+0, 0.00000E+0,1.00000,1,  100.0,    75.000,    15.000,   1,1.0000
    74,'1 ',    18.750,   -36.000,    54.000,   -36.000,0.95800,     0,   100.000, 0.00000E+0, 1.80000E-1, 0.00000E+0, 0.00000E+0,1.00000,1,  100.0,    75.000,    15.000,   1,1.0000
    76,'1 ',     0.000,     0.000,    54.000,   -36.000,0.94300,     0,   100.000, 0.00000E+0, 1.80000E-1, 0.00000E+0, 0.00000E+0,1.00000,0,  100.0,    75.000,    18.750,   1,1.0000
    77,'1 ',     0.000,     0.000,    54.000,   -36.000,1.00600,     0,   100.000, 0.00000E+0, 1.80000E-1, 0.00000E+0, 0.00000E+0,1.00000,0,  100.0,    75.000,    18.750,   1,1.0000
    80,'1 ',   266.863,    40.633,   280.000,  -251.000,1.04000,     0,   100.000, 0.00000E+0, 1.80000E-1, 0.00000E+0, 0.00000E+0,1.00000,1,  100.0,   627.000,   225.000,   1,1.0000
    85,'1 ',    18.814,   -38.000,    60.000,   -38.000,0.98500,     0,   100.000, 0.00000E+0, 1.80000E-1, 0.00000E+0, 0.00000E+0,1.00000,1,  100.0,    75.000,    16.000,   1,1.0000
    87,'1 ',     0.000,     0.000,    71.000,   -55.000,1.01500,     0,   100.000, 0.00000E+0, 1.80000E-1, 0.00000E+0, 0.00000E+0,1.00000,0,  100.0,   104.000,    34.634,   1,1.0000
    89,'1 ',   289.010,   -10.036,   354.000,  -165.000,1.00500,     0,   100.000, 0.00000E+0, 1.80000E-1, 0.00000E+0, 0.00000E+0,1.00000,1,  100.0,   555.000,   245.000,   1,1.0000
    90,'1 ',    18.814,    -4.400,    60.000,   -38.000,0.98500,     0,   100.000, 0.00000E+0, 1.80000E-1, 0.00000E+0, 0.00000E+0,1.00000,1,  100.0,    75.000,    15.000,   1,1.0000
    91,'1 ',     0.000,     0.000,    60.000,   -38.000,0.98000,     0,   100.000, 0.00000E+0, 1.80000E-1, 0.00000E+0, 0.00000E+0,1.00000,0,  100.0,    75.000,    18.814,   1,1.0000
    92,'1 ',     0.000,     0.000,    60.000,   -38.000,0.99000,     0,   100.000, 0.00000E+0, 1.80000E-1, 0.00000E+0, 0.00000E+0,1.00000,0,  100.0,    75.000,    18.814,   1,1.0000
    99,'1 ',     0.000,     0.000,    60.000,   -38.000,1.01000,     0,   100.000, 0.00000E+0, 1.80000E-1, 0.00000E+0, 0.00000E+0,1.00000,0,  100.0,    75.000,    18.750,   1,1.0000
   100,'1 ',   117.374,    28.152,   324.700,  -151.700,1.01700,     0,   100.000, 0.00000E+0, 1.80000E-1, 0.00000E+0, 0.00000E+0,1.00000,1,  100.0,   352.000,    97.000,   1,1.0000
   103,'1 ',    46.623,    26.257,   105.000,   -88.000,1.01000,     0,   100.000, 0.00000E+0, 1.80000E-1, 0.00000E+0, 0.00000E+0,1.00000,1,  100.0,   140.000,    38.000,   1,1.0000
   104,'1 ',     0.000,     0.000,    54.000,   -36.000,0.97100,     0,   100.000, 0.00000E+0, 1.80000E-1, 0.00000E+0, 0.00000E+0,1.00000,0,  100.0,    75.000,    18.750,   1,1.0000
   105,'1 ',     0.000,     0.000,    54.000,   -36.000,0.96500,     0,   100.000, 0.00000E+0, 1.80000E-1, 0.00000E+0, 0.00000E+0,1.00000,0,  100.0,    75.000,    18.750,   1,1.0000
   107,'1 ',    18.730,   -31.526,    60.000,   -38.000,0.95200,     0,   100.000, 0.00000E+0, 1.80000E-1, 0.00000E+0, 0.00000E+0,1.00000,1,  100.0,    75.000,    15.000,   1,1.0000
   110,'1 ',     0.000,     0.000,    60.000,   -38.000,0.97300,     0,   100.000, 0.00000E+0, 1.80000E-1, 0.00000E+0, 0.00000E+0,1.00000,0,  100.0,    75.000,    18.730,   1,1.0000
   111,'1 ',    45.291,    -8.070,   100.000,   -75.000,0.98000,     0,   100.000, 0.00000E+0, 1.80000E-1, 0.00000E+0, 0.00000E+0,1.00000,1,  100.0,   136.000,    38.000,   1,1.0000
   112,'1 ',     0.000,     0.000,    60.000,   -38.000,0.97500,     0,   100.000, 0.00000E+0, 1.80000E-1, 0.00000E+0, 0.00000E+0,1.00000,0,  100.0,    75.000,    18.730,   1,1.0000
   113,'1 ',     0.000,     0.000,    60.000,   -38.000,0.99300,     0,   100.000, 0.00000E+0, 1.80000E-1, 0.00000E+0, 0.00000E+0,1.00000,0,  100.0,    75.000,    18.730,   1,1.0000
   116,'1 ',     0.000,     0.000,    60.000,   -38.000,1.00500,     0,   100.000, 0.00000E+0, 1.80000E-1, 0.00000E+0, 0.00000E+0,1.00000,0,  100.0,    75.000,    18.750,   1,1.0000
 0 /End of Generator data, Begin Branch data
     1,      2,'1 ', 3.03000E-2, 9.99000E-2,   0.02540,   78.00,   90.00,   78.00,  0.00000,  0.00000,  0.00000,  0.00000,1,1,   0.00,   1,1.0000
     1,      3,'1 ', 1.29000E-2, 4.24000E-2,   0.01082,  167.70,  194.00,  167.70,  0.00000,  0.00000,  0.00000,  0.00000,1,1,   0.00,   1,1.0000
     2,     12,'1 ', 1.87000E-2, 6.16000E-2,   0.01572,  159.90,  185.00,  159.90,  0.00000,  0.00000,  0.00000,  0.00000,1,1,   0.00,   1,1.0000
     3,      5,'1 ', 2.41000E-2, 1.08000E-1,   0.02840,  312.00,  360.00,  312.00,  0.00000,  0.00000,  0.00000,  0.00000,1,1,   0.00,   1,1.0000
     3,     12,'1 ', 4.84000E-2, 1.60000E-1,   0.04060,   78.00,   90.00,   78.00,  0.00000,  0.00000,  0.00000,  0.00000,1,1,   0.00,   1,1.0000
     4,      5,'1 ', 1.76000E-3, 7.98000E-3,   0.00210,  444.60,  513.00,  444.60,  0.00000,  0.00000,  0.00000,  0.00000,1,1,   0.00,   1,1.0000
     4,     11,'1 ', 2.09000E-2, 6.88000E-2,   0.01748,  304.20,  351.00,  304.20,  0.00000,  0.00000,  0.00000,  0.00000,1,1,   0.00,   1,1.0000
     5,      6,'1 ', 1.19000E-2, 5.40000E-2,   0.01426,  397.80,  459.00,  397.80,  0.00000,  0.00000,  0.00000,  0.00000,1,1,   0.00,   1,1.0000
     5,     11,'1 ', 2.03000E-2, 6.82000E-2,   0.01738,  358.80,  414.00,  358.80,  0.00000,  0.00000,  0.00000,  0.00000,1,1,   0.00,   1,1.0000
     6,      7,'1 ', 4.59000E-3, 2.08000E-2,   0.00550,  226.20,  261.00,  226.20,  0.00000,  0.00000,  0.00000,  0.00000,1,1,   0.00,   1,1.0000
     7,     12,'1 ', 8.62000E-3, 3.40000E-2,   0.00874,  159.90,  185.00,  159.90,  0.00000,  0.00000,  0.00000,  0.00000,1,1,   0.00,   1,1.0000
     8,      9,'1 ', 2.44000E-3, 3.05000E-2,   1.16200, 1794.00, 2070.00, 1794.00,  0.00000,  0.00000,  0.00000,  0.00000,1,1,   0.00,   1,1.0000
     8,     30,'1 ', 4.31000E-3, 5.04000E-2,   0.51400,  963.30, 1112.00,  963.30,  0.00000,  0.00000,  0.00000,  0.00000,1,1,   0.00,   1,1.0000
     9,     10,'1 ', 2.58000E-3, 3.22000E-2,   1.23000, 1813.50, 2093.00, 1813.50,  0.00000,  0.00000,  0.00000,  0.00000,1,1,   0.00,   1,1.0000
    11,     12,'1 ', 5.95000E-3, 1.96000E-2,   0.00502,  261.30,  302.00,  261.30,  0.00000,  0.00000,  0.00000,  0.00000,1,1,   0.00,   1,1.0000
    11,     13,'1 ', 2.22500E-2, 7.31000E-2,   0.01876,  163.80,  189.00,  163.80,  0.00000,  0.00000,  0.00000,  0.00000,1,1,   0.00,   1,1.0000
    12,     14,'1 ', 2.15000E-2, 7.07000E-2,   0.01816,  101.40,  117.00,  101.40,  0.00000,  0.00000,  0.00000,  0.00000,1,1,   0.00,   1,1.0000
    12,     16,'1 ', 2.12000E-2, 8.34000E-2,   0.02140,  124.80,  144.00,  124.80,  0.00000,  0.00000,  0.00000,  0.00000,1,1,   0.00,   1,1.0000
    12,    117,'1 ', 3.29000E-2, 1.40000E-1,   0.03580,   85.80,   99.00,   85.80,  0.00000,  0.00000,  0.00000,  0.00000,1,1,   0.00,   1,1.0000
    13,     15,'1 ', 7.44000E-2, 2.44400E-1,   0.06268,  124.80,  144.00,  124.80,  0.00000,  0.00000,  0.00000,  0.00000,1,1,   0.00,   1,1.0000
    14,     15,'1 ', 5.95000E-2, 1.95000E-1,   0.05020,  136.50,  158.00,  136.50,  0.00000,  0.00000,  0.00000,  0.00000,1,1,   0.00,   1,1.0000
    15,     17,'1 ', 1.32000E-2, 4.37000E-2,   0.04440,  436.80,  504.00,  436.80,  0.00000,  0.00000,  0.00000,  0.00000,1,1,   0.00,   1,1.0000
    15,     19,'1 ', 1.20000E-2, 3.94000E-2,   0.01010,  132.60,  153.00,  132.60,  0.00000,  0.00000,  0.00000,  0.00000,1,1,   0.00,   1,1.0000
    15,     33,'1 ', 3.80000E-2, 1.24400E-1,   0.03194,  105.30,  122.00,  105.30,  0.00000,  0.00000,  0.00000,  0.00000,1,1,   0.00,   1,1.0000
    16,     17,'1 ', 4.54000E-2, 1.80100E-1,   0.04660,  210.60,  243.00,  210.60,  0.00000,  0.00000,  0.00000,  0.00000,1,1,   0.00,   1,1.0000
    17,     18,'1 ', 1.23000E-2, 5.05000E-2,   0.01298,  343.20,  396.00,  343.20,  0.00000,  0.00000,  0.00000,  0.00000,1,1,   0.00,   1,1.0000
    17,     31,'1 ', 4.74000E-2, 1.56300E-1,   0.03990,  132.60,  153.00,  132.60,  0.00000,  0.00000,  0.00000,  0.00000,1,1,   0.00,   1,1.0000
    17,    113,'1 ', 9.13000E-3, 3.01000E-2,   0.00768,  109.20,  126.00,  109.20,  0.00000,  0.00000,  0.00000,  0.00000,1,1,   0.00,   1,1.0000
    18,     19,'1 ', 1.11900E-2, 4.93000E-2,   0.01142,  113.10,  131.00,  113.10,  0.00000,  0.00000,  0.00000,  0.00000,1,1,   0.00,   1,1.0000
    19,     20,'1 ', 2.52000E-2, 1.17000E-1,   0.02980,  105.30,  122.00,  105.30,  0.00000,  0.00000,  0.00000,  0.00000,1,1,   0.00,   1,1.0000
    19,     34,'1 ', 7.52000E-2, 2.47000E-1,   0.06320,  128.70,  149.00,  128.70,  0.00000,  0.00000,  0.00000,  0.00000,1,1,   0.00,   1,1.0000
    20,     21,'1 ', 1.83000E-2, 8.49000E-2,   0.02160,  167.70,  194.00,  167.70,  0.00000,  0.00000,  0.00000,  0.00000,1,1,   0.00,   1,1.0000
    21,     22,'1 ', 2.09000E-2, 9.70000E-2,   0.02460,  222.30,  257.00,  222.30,  0.00000,  0.00000,  0.00000,  0.00000,1,1,   0.00,   1,1.0000
    22,     23,'1 ', 3.42000E-2, 1.59000E-1,   0.04040,  269.10,  311.00,  269.10,  0.00000,  0.00000,  0.00000,  0.00000,1,1,   0.00,   1,1.0000
    23,     24,'1 ', 1.35000E-2, 4.92000E-2,   0.04980,  304.20,  351.00,  304.20,  0.00000,  0.00000,  0.00000,  0.00000,1,1,   0.00,   1,1.0000
    23,     25,'1 ', 1.56000E-2, 8.00000E-2,   0.08640,  752.70,  869.00,  752.70,  0.00000,  0.00000,  0.00000,  0.00000,1,1,   0.00,   1,1.0000
    23,     32,'1 ', 3.17000E-2, 1.15300E-1,   0.11730,  456.30,  527.00,  456.30,  0.00000,  0.00000,  0.00000,  0.00000,1,1,   0.00,   1,1.0000
    24,     70,'1 ', 2.21000E-3, 4.11500E-1,   0.10198,  156.00,  180.00,  156.00,  0.00000,  0.00000,  0.00000,  0.00000,1,1,   0.00,   1,1.0000
    24,     72,'1 ', 4.88000E-2, 1.96000E-1,   0.04880,  152.10,  176.00,  152.10,  0.00000,  0.00000,  0.00000,  0.00000,1,1,   0.00,   1,1.0000
    25,     27,'1 ', 3.18000E-2, 1.63000E-1,   0.17640,  577.20,  666.00,  577.20,  0.00000,  0.00000,  0.00000,  0.00000,1,1,   0.00,   1,1.0000
    26,     30,'1 ', 7.99000E-3, 8.60000E-2,   0.90800, 1115.40, 1287.00, 1115.40,  0.00000,  0.00000,  0.00000,  0.00000,1,1,   0.00,   1,1.0000
    27,     28,'1 ', 1.91300E-2, 8.55000E-2,   0.02160,  152.10,  176.00,  152.10,  0.00000,  0.00000,  0.00000,  0.00000,1,1,   0.00,   1,1.0000
    27,     32,'1 ', 2.29000E-2, 7.55000E-2,   0.01926,   62.40,   72.00,   62.40,  0.00000,  0.00000,  0.00000,  0.00000,1,1,   0.00,   1,1.0000
    27,    115,'1 ', 1.64000E-2, 7.41000E-2,   0.01972,   89.70,  104.00,   89.70,  0.00000,  0.00000,  0.00000,  0.00000,1,1,   0.00,   1,1.0000
    28,     29,'1 ', 2.37000E-2, 9.43000E-2,   0.02380,   89.70,  104.00,   89.70,  0.00000,  0.00000,  0.00000,  0.00000,1,1,   0.00,   1,1.0000
    29,     31,'1 ', 1.08000E-2, 3.31000E-2,   0.00830,   78.00,   90.00,   78.00,  0.00000,  0.00000,  0.00000,  0.00000,1,1,   0.00,   1,1.0000
    30,     38,'1 ', 4.64000E-3, 5.40000E-2,   0.42200,  612.30,  707.00,  612.30,  0.00000,  0.00000,  0.00000,  0.00000,1,1,   0.00,   1,1.0000
    31,     32,'1 ', 2.98000E-2, 9.85000E-2,   0.02510,  175.50,  203.00,  175.50,  0.00000,  0.00000,  0.00000,  0.00000,1,1,   0.00,   1,1.0000
    32,    113,'1 ', 6.15000E-2, 2.03000E-1,   0.05180,  136.50,  158.00,  136.50,  0.00000,  0.00000,  0.00000,  0.00000,1,1,   0.00,   1,1.0000
    32,    114,'1 ', 1.35000E-2, 6.12000E-2,   0.01628,   70.20,   81.00,   70.20,  0.00000,  0.00000,  0.00000,  0.00000,1,1,   0.00,   1,1.0000
    33,     37,'1 ', 4.15000E-2, 1.42000E-1,   0.03660,  191.10,  221.00,  191.10,  0.00000,  0.00000,  0.00000,  0.00000,1,1,   0.00,   1,1.0000
    34,     36,'1 ', 8.71000E-3, 2.68000E-2,   0.00568,  136.50,  158.00,  136.50,  0.00000,  0.00000,  0.00000,  0.00000,1,1,   0.00,   1,1.0000
    34,     37,'1 ', 2.56000E-3, 9.40000E-3,   0.00984,  405.60,  468.00,  405.60,  0.00000,  0.00000,  0.00000,  0.00000,1,1,   0.00,   1,1.0000
    34,     43,'1 ', 4.13000E-2, 1.68100E-1,   0.04226,  105.30,  122.00,  105.30,  0.00000,  0.00000,  0.00000,  0.00000,1,1,   0.00,   1,1.0000
    35,     36,'1 ', 2.24000E-3, 1.02000E-2,   0.00268,   42.90,   50.00,   42.90,  0.00000,  0.00000,  0.00000,  0.00000,1,1,   0.00,   1,1.0000
    35,     37,'1 ', 1.10000E-2, 4.97000E-2,   0.01318,  148.20,  171.00,  148.20,  0.00000,  0.00000,  0.00000,  0.00000,1,1,   0.00,   1,1.0000
    37,     39,'1 ', 3.21000E-2, 1.06000E-1,   0.02700,  257.40,  297.00,  257.40,  0.00000,  0.00000,  0.00000,  0.00000,1,1,   0.00,   1,1.0000
    37,     40,'1 ', 5.93000E-2, 1.68000E-1,   0.04200,  214.50,  248.00,  214.50,  0.00000,  0.00000,  0.00000,  0.00000,1,1,   0.00,   1,1.0000
    38,     65,'1 ', 9.01000E-3, 9.86000E-2,   1.04600, 1361.10, 1571.00, 1361.10,  0.00000,  0.00000,  0.00000,  0.00000,1,1,   0.00,   1,1.0000
    39,     40,'1 ', 1.84000E-2, 6.05000E-2,   0.01552,  152.10,  176.00,  152.10,  0.00000,  0.00000,  0.00000,  0.00000,1,1,   0.00,   1,1.0000
    40,     41,'1 ', 1.45000E-2, 4.87000E-2,   0.01222,  113.10,  131.00,  113.10,  0.00000,  0.00000,  0.00000,  0.00000,1,1,   0.00,   1,1.0000
    40,     42,'1 ', 5.55000E-2, 1.83000E-1,   0.04660,  136.50,  158.00,  136.50,  0.00000,  0.00000,  0.00000,  0.00000,1,1,   0.00,   1,1.0000
    41,     42,'1 ', 4.10000E-2, 1.35000E-1,   0.03440,  171.60,  198.00,  171.60,  0.00000,  0.00000,  0.00000,  0.00000,1,1,   0.00,   1,1.0000
    42,     49,'1 ', 7.15000E-2, 3.23000E-1,   0.08600,  343.20,  396.00,  343.20,  0.00000,  0.00000,  0.00000,  0.00000,1,1,   0.00,   1,1.0000
    42,     49,'2 ', 7.15000E-2, 3.23000E-1,   0.08600,  343.20,  396.00,  343.20,  0.00000,  0.00000,  0.00000,  0.00000,1,1,   0.00,   1,1.0000
    43,     44,'1 ', 6.08000E-2, 2.45400E-1,   0.06068,  167.70,  194.00,  167.70,  0.00000,  0.00000,  0.00000,  0.00000,1,1,   0.00,   1,1.0000
    44,     45,'1 ', 2.24000E-2, 9.01000E-2,   0.02240,  230.10,  266.00,  230.10,  0.00000,  0.00000,  0.00000,  0.00000,1,1,   0.00,   1,1.0000
    45,     46,'1 ', 4.00000E-2, 1.35600E-1,   0.03320,  202.80,  234.00,  202.80,  0.00000,  0.00000,  0.00000,  0.00000,1,1,   0.00,   1,1.0000
    45,     49,'1 ', 6.84000E-2, 1.86000E-1,   0.04440,  249.60,  288.00,  249.60,  0.00000,  0.00000,  0.00000,  0.00000,1,1,   0.00,   1,1.0000
    46,     47,'1 ', 3.80000E-2, 1.27000E-1,   0.03160,  156.00,  180.00,  156.00,  0.00000,  0.00000,  0.00000,  0.00000,1,1,   0.00,   1,1.0000
    46,     48,'1 ', 6.01000E-2, 1.89000E-1,   0.04720,   81.90,   95.00,   81.90,  0.00000,  0.00000,  0.00000,  0.00000,1,1,   0.00,   1,1.0000
    47,     49,'1 ', 1.91000E-2, 6.25000E-2,   0.01604,   85.80,   99.00,   85.80,  0.00000,  0.00000,  0.00000,  0.00000,1,1,   0.00,   1,1.0000
    47,     69,'1 ', 8.44000E-2, 2.77800E-1,   0.07092,  315.90,  365.00,  315.90,  0.00000,  0.00000,  0.00000,  0.00000,1,1,   0.00,   1,1.0000
    48,     49,'1 ', 1.79000E-2, 5.05000E-2,   0.01258,  163.80,  189.00,  163.80,  0.00000,  0.00000,  0.00000,  0.00000,1,1,   0.00,   1,1.0000
    49,     50,'1 ', 2.67000E-2, 7.52000E-2,   0.01874,  253.50,  293.00,  253.50,  0.00000,  0.00000,  0.00000,  0.00000,1,1,   0.00,   1,1.0000
    49,     51,'1 ', 4.86000E-2, 1.37000E-1,   0.03420,  315.90,  365.00,  315.90,  0.00000,  0.00000,  0.00000,  0.00000,1,1,   0.00,   1,1.0000
    49,     54,'1 ', 8.69000E-2, 2.91000E-1,   0.07300,  195.00,  225.00,  195.00,  0.00000,  0.00000,  0.00000,  0.00000,1,1,   0.00,   1,1.0000
    49,     54,'2 ', 7.30000E-2, 2.89000E-1,   0.07380,  195.00,  225.00,  195.00,  0.00000,  0.00000,  0.00000,  0.00000,1,1,   0.00,   1,1.0000
    49,     66,'1 ', 1.80000E-2, 9.19000E-2,   0.02480,  702.00,  810.00,  702.00,  0.00000,  0.00000,  0.00000,  0.00000,1,1,   0.00,   1,1.0000
    49,     66,'2 ', 1.80000E-2, 9.19000E-2,   0.02480,  702.00,  810.00,  702.00,  0.00000,  0.00000,  0.00000,  0.00000,1,1,   0.00,   1,1.0000
    49,     69,'1 ', 9.85000E-2, 3.24000E-1,   0.08280,  280.80,  324.00,  280.80,  0.00000,  0.00000,  0.00000,  0.00000,1,1,   0.00,   1,1.0000
    50,     57,'1 ', 4.74000E-2, 1.34000E-1,   0.03320,  183.30,  212.00,  183.30,  0.00000,  0.00000,  0.00000,  0.00000,1,1,   0.00,   1,1.0000
    51,     52,'1 ', 2.03000E-2, 5.88000E-2,   0.01396,  128.70,  149.00,  128.70,  0.00000,  0.00000,  0.00000,  0.00000,1,1,   0.00,   1,1.0000
    51,     58,'1 ', 2.55000E-2, 7.19000E-2,   0.01788,  105.30,  122.00,  105.30,  0.00000,  0.00000,  0.00000,  0.00000,1,1,   0.00,   1,1.0000
    52,     53,'1 ', 4.05000E-2, 1.63500E-1,   0.04058,   58.50,   68.00,   58.50,  0.00000,  0.00000,  0.00000,  0.00000,1,1,   0.00,   1,1.0000
    53,     54,'1 ', 2.63000E-2, 1.22000E-1,   0.03100,   74.10,   86.00,   74.10,  0.00000,  0.00000,  0.00000,  0.00000,1,1,   0.00,   1,1.0000
    54,     55,'1 ', 1.69000E-2, 7.07000E-2,   0.02020,   42.90,   50.00,   42.90,  0.00000,  0.00000,  0.00000,  0.00000,1,1,   0.00,   1,1.0000
    54,     56,'1 ', 2.75000E-3, 9.55000E-3,   0.00732,  117.00,  135.00,  117.00,  0.00000,  0.00000,  0.00000,  0.00000,1,1,   0.00,   1,1.0000
    54,     59,'1 ', 5.03000E-2, 2.29300E-1,   0.05980,  152.10,  176.00,  152.10,  0.00000,  0.00000,  0.00000,  0.00000,1,1,   0.00,   1,1.0000
    55,     56,'1 ', 4.88000E-3, 1.51000E-2,   0.00374,  113.10,  131.00,  113.10,  0.00000,  0.00000,  0.00000,  0.00000,1,1,   0.00,   1,1.0000
    55,     59,'1 ', 4.73900E-2, 2.15800E-1,   0.05646,  167.70,  194.00,  167.70,  0.00000,  0.00000,  0.00000,  0.00000,1,1,   0.00,   1,1.0000
    56,     57,'1 ', 3.43000E-2, 9.66000E-2,   0.02420,  128.70,  149.00,  128.70,  0.00000,  0.00000,  0.00000,  0.00000,1,1,   0.00,   1,1.0000
    56,     58,'1 ', 3.43000E-2, 9.66000E-2,   0.02420,   58.50,   68.00,   58.50,  0.00000,  0.00000,  0.00000,  0.00000,1,1,   0.00,   1,1.0000
    56,     59,'1 ', 8.03000E-2, 2.39000E-1,   0.05360,  144.30,  167.00,  144.30,  0.00000,  0.00000,  0.00000,  0.00000,1,1,   0.00,   1,1.0000
    56,     59,'2 ', 8.25000E-2, 2.51000E-1,   0.05690,  144.30,  167.00,  144.30,  0.00000,  0.00000,  0.00000,  0.00000,1,1,   0.00,   1,1.0000
    59,     60,'1 ', 3.17000E-2, 1.45000E-1,   0.03760,  265.20,  306.00,  265.20,  0.00000,  0.00000,  0.00000,  0.00000,1,1,   0.00,   1,1.0000
    59,     61,'1 ', 3.28000E-2, 1.50000E-1,   0.03880,  300.30,  347.00,  300.30,  0.00000,  0.00000,  0.00000,  0.00000,1,1,   0.00,   1,1.0000
    60,     61,'1 ', 2.64000E-3, 1.35000E-2,   0.01456,  491.40,  567.00,  491.40,  0.00000,  0.00000,  0.00000,  0.00000,1,1,   0.00,   1,1.0000
    60,     62,'1 ', 1.23000E-2, 5.61000E-2,   0.01468,   89.70,  104.00,   89.70,  0.00000,  0.00000,  0.00000,  0.00000,1,1,   0.00,   1,1.0000
    61,     62,'1 ', 8.24000E-3, 3.76000E-2,   0.00980,  210.60,  243.00,  210.60,  0.00000,  0.00000,  0.00000,  0.00000,1,1,   0.00,   1,1.0000
    62,     66,'1 ', 4.82000E-2, 2.18000E-1,   0.05780,  226.20,  261.00,  226.20,  0.00000,  0.00000,  0.00000,  0.00000,1,1,   0.00,   1,1.0000
    62,     67,'1 ', 2.58000E-2, 1.17000E-1,   0.03100,  167.70,  194.00,  167.70,  0.00000,  0.00000,  0.00000,  0.00000,1,1,   0.00,   1,1.0000
    63,     64,'1 ', 1.72000E-3, 2.00000E-2,   0.21600,  912.60, 1053.00,  912.60,  0.00000,  0.00000,  0.00000,  0.00000,1,1,   0.00,   1,1.0000
    64,     65,'1 ', 2.69000E-3, 3.02000E-2,   0.38000, 1095.90, 1265.00, 1095.90,  0.00000,  0.00000,  0.00000,  0.00000,1,1,   0.00,   1,1.0000
    65,     68,'1 ', 1.38000E-3, 1.60000E-2,   0.63800, 1037.40, 1197.00, 1037.40,  0.00000,  0.00000,  0.00000,  0.00000,1,1,   0.00,   1,1.0000
    66,     67,'1 ', 2.24000E-2, 1.01500E-1,   0.02682,  284.70,  329.00,  284.70,  0.00000,  0.00000,  0.00000,  0.00000,1,1,   0.00,   1,1.0000
    68,     81,'1 ', 1.75000E-3, 2.02000E-2,   0.80800,  815.10,  941.00,  815.10,  0.00000,  0.00000,  0.00000,  0.00000,1,1,   0.00,   1,1.0000
    68,    116,'1 ', 3.40000E-4, 4.05000E-3,   0.16400,  834.60,  963.00,  834.60,  0.00000,  0.00000,  0.00000,  0.00000,1,1,   0.00,   1,1.0000
    69,     70,'1 ', 3.00000E-2, 1.27000E-1,   0.12200,  510.90,  590.00,  510.90,  0.00000,  0.00000,  0.00000,  0.00000,1,1,   0.00,   1,1.0000
    69,     75,'1 ', 4.05000E-2, 1.22000E-1,   0.12400,  464.10,  536.00,  464.10,  0.00000,  0.00000,  0.00000,  0.00000,1,1,   0.00,   1,1.0000
    69,     77,'1 ', 3.09000E-2, 1.01000E-1,   0.10380,  682.50,  788.00,  682.50,  0.00000,  0.00000,  0.00000,  0.00000,1,1,   0.00,   1,1.0000
    70,     71,'1 ', 8.82000E-3, 3.55000E-2,   0.00878,  171.60,  198.00,  171.60,  0.00000,  0.00000,  0.00000,  0.00000,1,1,   0.00,   1,1.0000
    70,     74,'1 ', 4.01000E-2, 1.32300E-1,   0.03368,  163.80,  189.00,  163.80,  0.00000,  0.00000,  0.00000,  0.00000,1,1,   0.00,   1,1.0000
    70,     75,'1 ', 4.28000E-2, 1.41000E-1,   0.03600,  136.50,  158.00,  136.50,  0.00000,  0.00000,  0.00000,  0.00000,1,1,   0.00,   1,1.0000
    71,     72,'1 ', 4.46000E-2, 1.80000E-1,   0.04444,  159.90,  185.00,  159.90,  0.00000,  0.00000,  0.00000,  0.00000,1,1,   0.00,   1,1.0000
    71,     73,'1 ', 8.66000E-3, 4.54000E-2,   0.01178,   58.50,   68.00,   58.50,  0.00000,  0.00000,  0.00000,  0.00000,1,1,   0.00,   1,1.0000
    74,     75,'1 ', 1.23000E-2, 4.06000E-2,   0.01034,  241.80,  279.00,  241.80,  0.00000,  0.00000,  0.00000,  0.00000,1,1,   0.00,   1,1.0000
    75,     77,'1 ', 6.01000E-2, 1.99900E-1,   0.04978,  195.00,  225.00,  195.00,  0.00000,  0.00000,  0.00000,  0.00000,1,1,   0.00,   1,1.0000
    75,    118,'1 ', 1.45000E-2, 4.81000E-2,   0.01198,  280.80,  324.00,  280.80,  0.00000,  0.00000,  0.00000,  0.00000,1,1,   0.00,   1,1.0000
    76,     77,'1 ', 4.44000E-2, 1.48000E-1,   0.03680,  288.60,  333.00,  288.60,  0.00000,  0.00000,  0.00000,  0.00000,1,1,   0.00,   1,1.0000
    76,    118,'1 ', 1.64000E-2, 5.44000E-2,   0.01356,  140.40,  162.00,  140.40,  0.00000,  0.00000,  0.00000,  0.00000,1,1,   0.00,   1,1.0000
    77,     78,'1 ', 3.76000E-3, 1.24000E-2,   0.01264,  331.50,  383.00,  331.50,  0.00000,  0.00000,  0.00000,  0.00000,1,1,   0.00,   1,1.0000
    77,     80,'1 ', 2.94000E-2, 1.05000E-1,   0.02280,  436.80,  504.00,  436.80,  0.00000,  0.00000,  0.00000,  0.00000,1,1,   0.00,   1,1.0000
    77,     80,'2 ', 1.70000E-2, 4.85000E-2,   0.04720,  436.80,  504.00,  436.80,  0.00000,  0.00000,  0.00000,  0.00000,1,1,   0.00,   1,1.0000
    77,     82,'1 ', 2.98000E-2, 8.53000E-2,   0.08174,  659.10,  761.00,  659.10,  0.00000,  0.00000,  0.00000,  0.00000,1,1,   0.00,   1,1.0000
    78,     79,'1 ', 5.46000E-3, 2.44000E-2,   0.00648,  132.60,  153.00,  132.60,  0.00000,  0.00000,  0.00000,  0.00000,1,1,   0.00,   1,1.0000
    79,     80,'1 ', 1.56000E-2, 7.04000E-2,   0.01870,  296.40,  342.00,  296.40,  0.00000,  0.00000,  0.00000,  0.00000,1,1,   0.00,   1,1.0000
    80,     96,'1 ', 3.56000E-2, 1.82000E-1,   0.04940,  397.80,  459.00,  397.80,  0.00000,  0.00000,  0.00000,  0.00000,1,1,   0.00,   1,1.0000
    80,     97,'1 ', 1.83000E-2, 9.34000E-2,   0.02540,  432.90,  500.00,  432.90,  0.00000,  0.00000,  0.00000,  0.00000,1,1,   0.00,   1,1.0000
    80,     98,'1 ', 2.38000E-2, 1.08000E-1,   0.02860,  366.60,  423.00,  366.60,  0.00000,  0.00000,  0.00000,  0.00000,1,1,   0.00,   1,1.0000
    80,     99,'1 ', 4.54000E-2, 2.06000E-1,   0.05460,  315.90,  365.00,  315.90,  0.00000,  0.00000,  0.00000,  0.00000,1,1,   0.00,   1,1.0000
    82,     83,'1 ', 1.12000E-2, 3.66500E-2,   0.03796,  487.50,  563.00,  487.50,  0.00000,  0.00000,  0.00000,  0.00000,1,1,   0.00,   1,1.0000
    82,     96,'1 ', 1.62000E-2, 5.30000E-2,   0.05440,   85.80,   99.00,   85.80,  0.00000,  0.00000,  0.00000,  0.00000,1,1,   0.00,   1,1.0000
    83,     84,'1 ', 6.25000E-2, 1.32000E-1,   0.02580,  175.50,  203.00,  175.50,  0.00000,  0.00000,  0.00000,  0.00000,1,1,   0.00,   1,1.0000
    83,     85,'1 ', 4.30000E-2, 1.48000E-1,   0.03480,  245.70,  284.00,  245.70,  0.00000,  0.00000,  0.00000,  0.00000,1,1,   0.00,   1,1.0000
    84,     85,'1 ', 3.02000E-2, 6.41000E-2,   0.01234,  198.90,  230.00,  198.90,  0.00000,  0.00000,  0.00000,  0.00000,1,1,   0.00,   1,1.0000
    85,     86,'1 ', 3.50000E-2, 1.23000E-1,   0.02760,   85.80,   99.00,   85.80,  0.00000,  0.00000,  0.00000,  0.00000,1,1,   0.00,   1,1.0000
    85,     88,'1 ', 2.00000E-2, 1.02000E-1,   0.02760,  226.20,  261.00,  226.20,  0.00000,  0.00000,  0.00000,  0.00000,1,1,   0.00,   1,1.0000
    85,     89,'1 ', 2.39000E-2, 1.73000E-1,   0.04700,  308.10,  356.00,  308.10,  0.00000,  0.00000,  0.00000,  0.00000,1,1,   0.00,   1,1.0000
    86,     87,'1 ', 2.82800E-2, 2.07400E-1,   0.04450,   93.60,  108.00,   93.60,  0.00000,  0.00000,  0.00000,  0.00000,1,1,   0.00,   1,1.0000
    88,     89,'1 ', 1.39000E-2, 7.12000E-2,   0.01934,  417.30,  482.00,  417.30,  0.00000,  0.00000,  0.00000,  0.00000,1,1,   0.00,   1,1.0000
    89,     90,'1 ', 2.38000E-2, 9.97000E-2,   0.10600,  436.80,  504.00,  436.80,  0.00000,  0.00000,  0.00000,  0.00000,1,1,   0.00,   1,1.0000
    89,     90,'2 ', 5.18000E-2, 1.88000E-1,   0.05280,  436.80,  504.00,  436.80,  0.00000,  0.00000,  0.00000,  0.00000,1,1,   0.00,   1,1.0000
    89,     92,'1 ', 3.93000E-2, 1.58100E-1,   0.04140,  877.50, 1013.00,  877.50,  0.00000,  0.00000,  0.00000,  0.00000,1,1,   0.00,   1,1.0000
    89,     92,'2 ', 9.90000E-3, 5.05000E-2,   0.05480,  877.50, 1013.00,  877.50,  0.00000,  0.00000,  0.00000,  0.00000,1,1,   0.00,   1,1.0000
    90,     91,'1 ', 2.54000E-2, 8.36000E-2,   0.02140,  202.80,  234.00,  202.80,  0.00000,  0.00000,  0.00000,  0.00000,1,1,   0.00,   1,1.0000
    91,     92,'1 ', 3.87000E-2, 1.27200E-1,   0.03268,  195.00,  225.00,  195.00,  0.00000,  0.00000,  0.00000,  0.00000,1,1,   0.00,   1,1.0000
    92,     93,'1 ', 2.58000E-2, 8.48000E-2,   0.02180,  273.00,  315.00,  273.00,  0.00000,  0.00000,  0.00000,  0.00000,1,1,   0.00,   1,1.0000
    92,     94,'1 ', 4.81000E-2, 1.58000E-1,   0.04060,  257.40,  297.00,  257.40,  0.00000,  0.00000,  0.00000,  0.00000,1,1,   0.00,   1,1.0000
    92,    100,'1 ', 6.48000E-2, 2.95000E-1,   0.04720,  195.00,  225.00,  195.00,  0.00000,  0.00000,  0.00000,  0.00000,1,1,   0.00,   1,1.0000
    92,    102,'1 ', 1.23000E-2, 5.59000E-2,   0.01464,  245.70,  284.00,  245.70,  0.00000,  0.00000,  0.00000,  0.00000,1,1,   0.00,   1,1.0000
    93,     94,'1 ', 2.23000E-2, 7.32000E-2,   0.01876,  261.30,  302.00,  261.30,  0.00000,  0.00000,  0.00000,  0.00000,1,1,   0.00,   1,1.0000
    94,     95,'1 ', 1.32000E-2, 4.34000E-2,   0.01110,  249.60,  288.00,  249.60,  0.00000,  0.00000,  0.00000,  0.00000,1,1,   0.00,   1,1.0000
    94,     96,'1 ', 2.69000E-2, 8.69000E-2,   0.02300,  245.70,  284.00,  245.70,  0.00000,  0.00000,  0.00000,  0.00000,1,1,   0.00,   1,1.0000
    94,    100,'1 ', 1.78000E-2, 5.80000E-2,   0.06040,  382.20,  441.00,  382.20,  0.00000,  0.00000,  0.00000,  0.00000,1,1,   0.00,   1,1.0000
    95,     96,'1 ', 1.71000E-2, 5.47000E-2,   0.01474,  280.80,  324.00,  280.80,  0.00000,  0.00000,  0.00000,  0.00000,1,1,   0.00,   1,1.0000
    96,     97,'1 ', 1.73000E-2, 8.85000E-2,   0.02400,  354.90,  410.00,  354.90,  0.00000,  0.00000,  0.00000,  0.00000,1,1,   0.00,   1,1.0000
    98,    100,'1 ', 3.97000E-2, 1.79000E-1,   0.04760,  230.10,  266.00,  230.10,  0.00000,  0.00000,  0.00000,  0.00000,1,1,   0.00,   1,1.0000
    99,    100,'1 ', 1.80000E-2, 8.13000E-2,   0.02160,  202.80,  234.00,  202.80,  0.00000,  0.00000,  0.00000,  0.00000,1,1,   0.00,   1,1.0000
   100,    101,'1 ', 2.77000E-2, 1.26200E-1,   0.03280,  245.70,  284.00,  245.70,  0.00000,  0.00000,  0.00000,  0.00000,1,1,   0.00,   1,1.0000
   100,    103,'1 ', 1.60000E-2, 5.25000E-2,   0.05360,  588.90,  680.00,  588.90,  0.00000,  0.00000,  0.00000,  0.00000,1,1,   0.00,   1,1.0000
   100,    104,'1 ', 4.51000E-2, 2.04000E-1,   0.05410,  249.60,  288.00,  249.60,  0.00000,  0.00000,  0.00000,  0.00000,1,1,   0.00,   1,1.0000
   100,    106,'1 ', 6.05000E-2, 2.29000E-1,   0.06200,  261.30,  302.00,  261.30,  0.00000,  0.00000,  0.00000,  0.00000,1,1,   0.00,   1,1.0000
   101,    102,'1 ', 2.46000E-2, 1.12000E-1,   0.02940,  226.20,  261.00,  226.20,  0.00000,  0.00000,  0.00000,  0.00000,1,1,   0.00,   1,1.0000
   103,    104,'1 ', 4.66000E-2, 1.58400E-1,   0.04070,  132.60,  153.00,  132.60,  0.00000,  0.00000,  0.00000,  0.00000,1,1,   0.00,   1,1.0000
   103,    105,'1 ', 5.35000E-2, 1.62500E-1,   0.04080,  179.40,  207.00,  179.40,  0.00000,  0.00000,  0.00000,  0.00000,1,1,   0.00,   1,1.0000
   103,    110,'1 ', 3.90600E-2, 1.81300E-1,   0.04610,  315.90,  365.00,  315.90,  0.00000,  0.00000,  0.00000,  0.00000,1,1,   0.00,   1,1.0000
   104,    105,'1 ', 9.94000E-3, 3.78000E-2,   0.00986,  222.30,  257.00,  222.30,  0.00000,  0.00000,  0.00000,  0.00000,1,1,   0.00,   1,1.0000
   105,    106,'1 ', 1.40000E-2, 5.47000E-2,   0.01434,   78.00,   90.00,   78.00,  0.00000,  0.00000,  0.00000,  0.00000,1,1,   0.00,   1,1.0000
   105,    107,'1 ', 5.30000E-2, 1.83000E-1,   0.04720,  105.30,  122.00,  105.30,  0.00000,  0.00000,  0.00000,  0.00000,1,1,   0.00,   1,1.0000
   105,    108,'1 ', 2.61000E-2, 7.03000E-2,   0.01844,  171.60,  198.00,  171.60,  0.00000,  0.00000,  0.00000,  0.00000,1,1,   0.00,   1,1.0000
   106,    107,'1 ', 5.30000E-2, 1.83000E-1,   0.04720,   97.50,  113.00,   97.50,  0.00000,  0.00000,  0.00000,  0.00000,1,1,   0.00,   1,1.0000
   108,    109,'1 ', 1.05000E-2, 2.88000E-2,   0.00760,  159.90,  185.00,  159.90,  0.00000,  0.00000,  0.00000,  0.00000,1,1,   0.00,   1,1.0000
   109,    110,'1 ', 2.78000E-2, 7.62000E-2,   0.02020,  140.40,  162.00,  140.40,  0.00000,  0.00000,  0.00000,  0.00000,1,1,   0.00,   1,1.0000
   110,    111,'1 ', 2.20000E-2, 7.55000E-2,   0.02000,  187.20,  216.00,  187.20,  0.00000,  0.00000,  0.00000,  0.00000,1,1,   0.00,   1,1.0000
...